/*--------------------------------*- C++ -*----------------------------------*\
  =========                 |
  \\      /  F ield         | OpenFOAM: The Open Source CFD Toolbox
   \\    /   O peration     | Website:  https://openfoam.org
    \\  /    A nd           | Version:  8
     \\/     M anipulation  |
\*---------------------------------------------------------------------------*/
FoamFile
{
    version     2.0;
    format      ascii;
    class       dictionary;
    object      fvSchemes;
}

// * * * * * * * * * * * * * * * * * * * * * * * * * * * * * * * * * * * * * //

ddtSchemes
{
    default                         steadyState;
}

gradSchemes
{
    default                         Gauss linear;
    grad(U)                         cellLimited Gauss linear 0.333;
    grad(k)                         cellLimited Gauss linear 0.333;
    grad(epsilon)                   cellLimited Gauss linear 0.333;
}

divSchemes
{
    default                         none;
    turbulenceScheme                bounded Gauss limitedLinear 0.333;
    div(phi,U)                      bounded Gauss linearUpwind grad(U);
    div(phi,k)                      $turbulenceScheme;
    div(phi,epsilon)                $turbulenceScheme;
    div(phi,omega)                  $turbulenceScheme;
    div(U)                          Gauss limitedLinear 0.333;
    div((nuEff*dev2(T(grad(U)))))   Gauss linear;
    div(phi,aoa)                    Gauss limitedLinear 0.333;
}

laplacianSchemes
{
    default                         Gauss linear limited corrected 0.333;
}

interpolationSchemes
{
    default                         linear;
}

snGradSchemes
{
    default                         limited corrected 0.333;
}

wallDist
{
    method                          meshWave;
}

