/*--------------------------------*- C++ -*----------------------------------*\
| =========                 |                                                 |
| \\      /  F ield         | OpenFOAM: The Open Source CFD Toolbox           |
|  \\    /   O peration     | Version:  v3.0+                                 |
|   \\  /    A nd           | Web:      www.OpenFOAM.org                      |
|    \\/     M anipulation  |                                                 |
\*---------------------------------------------------------------------------*/
FoamFile
{
    version     2.0;
    format      ascii;
    class       IOobject;
    location    "0";
    object ABLConditions;
        }

        // * * * * * * * * * * * * * * * * * * * * * * * * * * * * * * * * * * * * * //
        Uref		5;
        Zref		10;
        z0 uniform 1;
        flowDir (0 -1 0);
        zDir (0 0 1);
        zGround uniform 0;

// * * * * * * * * * * * * * * * * * * * * * * * * * * * * * * * * * * * * * //
