
        /*--------------------------------*- C++ -*----------------------------------*\
        | =========                 |                                                 |
        | \\      /  F ield         | OpenFOAM: The Open Source CFD Toolbox           |
        |  \\    /   O peration     | Version:  2.1.0                                  |
        |   \\  /    A nd           | Web:      http://www.OpenFOAM.com               |
        |    \\/     M anipulation  |                                                 |
        \*---------------------------------------------------------------------------*/
        FoamFile
        {
        version     2.0;
        format      ascii;
        class       dictionary;
        object      blockMeshDict;
        }

        // * * * * * * * * * * * * * * * * * * * * * * * * * * * * * * * * * * * * * //

        convertToMeters 1;

        //
        vertices
        (

        
(573.787 565.458 0.1)
(854.828 846.499 0.1)
(845.213 855.963 0.1)
(835.137 865.565 0.1)
(824.579 875.297 0.1)
(813.516 885.149 0.1)
(801.928 895.106 0.1)
(789.791 905.155 0.1)
(777.085 915.279 0.1)
(763.787 925.458 0.1)
(749.878 935.672 0.1)
(735.337 945.894 0.1)
(720.145 956.099 0.1)
(704.286 966.257 0.1)
(687.745 976.335 0.1)
(670.509 986.298 0.1)
(652.569 996.107 0.1)
(633.919 1005.722 0.1)
(614.556 1015.099 0.1)
(594.483 1024.192 0.1)
(573.708 1032.955 0.1)
(552.242 1041.338 0.1)
(530.105 1049.292 0.1)
(507.321 1056.766 0.1)
(483.921 1063.712 0.1)
(459.943 1070.08 0.1)
(435.43 1075.823 0.1)
(410.433 1080.9 0.1)
(385.008 1085.269 0.1)
(359.217 1088.895 0.1)
(333.127 1091.748 0.1)
(306.809 1093.803 0.1)
(280.337 1095.044 0.1)
(253.787 1095.458 0.1)
(227.238 1095.044 0.1)
(200.766 1093.803 0.1)
(174.448 1091.748 0.1)
(148.358 1088.895 0.1)
(122.567 1085.269 0.1)
(97.142 1080.9 0.1)
(72.145 1075.823 0.1)
(47.632 1070.08 0.1)
(23.654 1063.712 0.1)
(0.254 1056.766 0.1)
(-22.53 1049.292 0.1)
(-44.668 1041.338 0.1)
(-66.133 1032.955 0.1)
(-86.909 1024.192 0.1)
(-106.981 1015.099 0.1)
(-126.344 1005.722 0.1)
(-144.995 996.107 0.1)
(-162.935 986.298 0.1)
(-180.171 976.335 0.1)
(-196.712 966.257 0.1)
(-212.571 956.099 0.1)
(-227.762 945.894 0.1)
(-242.303 935.672 0.1)
(-256.213 925.458 0.1)
(-269.51 915.279 0.1)
(-282.216 905.155 0.1)
(-294.353 895.106 0.1)
(-305.941 885.149 0.1)
(-317.004 875.297 0.1)
(-327.563 865.565 0.1)
(-337.639 855.963 0.1)
(-347.253 846.499 0.1)
(-356.717 836.884 0.1)
(-366.319 826.808 0.1)
(-376.051 816.25 0.1)
(-385.903 805.187 0.1)
(-395.86 793.599 0.1)
(-405.909 781.462 0.1)
(-416.033 768.756 0.1)
(-426.213 755.458 0.1)
(-436.426 741.549 0.1)
(-446.648 727.008 0.1)
(-456.853 711.816 0.1)
(-467.011 695.958 0.1)
(-477.089 679.416 0.1)
(-487.052 662.18 0.1)
(-496.861 644.24 0.1)
(-506.476 625.59 0.1)
(-515.853 606.227 0.1)
(-524.946 586.154 0.1)
(-533.709 565.379 0.1)
(-542.092 543.913 0.1)
(-550.046 521.776 0.1)
(-557.521 498.992 0.1)
(-564.466 475.592 0.1)
(-570.834 451.614 0.1)
(-576.578 427.101 0.1)
(-581.654 402.104 0.1)
(-586.023 376.679 0.1)
(-589.649 350.888 0.1)
(-592.502 324.798 0.1)
(-594.557 298.48 0.1)
(-595.798 272.008 0.1)
(-596.213 245.458 0.1)
(-595.798 218.909 0.1)
(-594.557 192.437 0.1)
(-592.502 166.119 0.1)
(-589.649 140.029 0.1)
(-586.023 114.238 0.1)
(-581.654 88.813 0.1)
(-576.578 63.816 0.1)
(-570.834 39.303 0.1)
(-564.466 15.325 0.1)
(-557.521 -8.075 0.1)
(-550.046 -30.859 0.1)
(-542.092 -52.996 0.1)
(-533.709 -74.462 0.1)
(-524.946 -95.238 0.1)
(-515.853 -115.31 0.1)
(-506.476 -134.673 0.1)
(-496.861 -153.324 0.1)
(-487.052 -171.264 0.1)
(-477.089 -188.499 0.1)
(-467.011 -205.041 0.1)
(-456.853 -220.9 0.1)
(-446.648 -236.091 0.1)
(-436.426 -250.632 0.1)
(-426.213 -264.542 0.1)
(-416.033 -277.839 0.1)
(-405.909 -290.545 0.1)
(-395.86 -302.682 0.1)
(-385.903 -314.27 0.1)
(-376.051 -325.333 0.1)
(-366.319 -335.892 0.1)
(-356.717 -345.967 0.1)
(-347.253 -355.582 0.1)
(-337.639 -365.046 0.1)
(-327.563 -374.648 0.1)
(-317.004 -384.38 0.1)
(-305.941 -394.232 0.1)
(-294.353 -404.189 0.1)
(-282.216 -414.238 0.1)
(-269.51 -424.362 0.1)
(-256.213 -434.542 0.1)
(-242.303 -444.755 0.1)
(-227.762 -454.977 0.1)
(-212.571 -465.182 0.1)
(-196.712 -475.34 0.1)
(-180.171 -485.418 0.1)
(-162.935 -495.381 0.1)
(-144.995 -505.19 0.1)
(-126.344 -514.805 0.1)
(-106.981 -524.182 0.1)
(-86.909 -533.275 0.1)
(-66.133 -542.038 0.1)
(-44.668 -550.421 0.1)
(-22.53 -558.375 0.1)
(0.254 -565.85 0.1)
(23.654 -572.795 0.1)
(47.632 -579.163 0.1)
(72.145 -584.907 0.1)
(97.142 -589.983 0.1)
(122.567 -594.352 0.1)
(148.358 -597.978 0.1)
(174.448 -600.831 0.1)
(200.766 -602.886 0.1)
(227.238 -604.127 0.1)
(253.787 -604.542 0.1)
(280.337 -604.127 0.1)
(306.809 -602.886 0.1)
(333.127 -600.831 0.1)
(359.217 -597.978 0.1)
(385.008 -594.352 0.1)
(410.433 -589.983 0.1)
(435.43 -584.907 0.1)
(459.943 -579.163 0.1)
(483.921 -572.795 0.1)
(507.321 -565.85 0.1)
(530.105 -558.375 0.1)
(552.242 -550.421 0.1)
(573.708 -542.038 0.1)
(594.483 -533.275 0.1)
(614.556 -524.182 0.1)
(633.919 -514.805 0.1)
(652.569 -505.19 0.1)
(670.509 -495.381 0.1)
(687.745 -485.418 0.1)
(704.286 -475.34 0.1)
(720.145 -465.182 0.1)
(735.337 -454.977 0.1)
(749.878 -444.755 0.1)
(763.787 -434.542 0.1)
(777.085 -424.362 0.1)
(789.791 -414.238 0.1)
(801.928 -404.189 0.1)
(813.516 -394.232 0.1)
(824.579 -384.38 0.1)
(835.137 -374.648 0.1)
(845.213 -365.046 0.1)
(854.828 -355.582 0.1)
(864.292 -345.967 0.1)
(873.894 -335.892 0.1)
(883.626 -325.333 0.1)
(893.478 -314.27 0.1)
(903.435 -302.682 0.1)
(913.484 -290.545 0.1)
(923.608 -277.839 0.1)
(933.787 -264.542 0.1)
(944 -250.632 0.1)
(954.223 -236.091 0.1)
(964.428 -220.9 0.1)
(974.586 -205.041 0.1)
(984.664 -188.499 0.1)
(994.627 -171.264 0.1)
(1004.436 -153.324 0.1)
(1014.051 -134.673 0.1)
(1023.427 -115.31 0.1)
(1032.521 -95.238 0.1)
(1041.284 -74.462 0.1)
(1049.667 -52.996 0.1)
(1057.621 -30.859 0.1)
(1065.095 -8.075 0.1)
(1072.041 15.325 0.1)
(1078.409 39.303 0.1)
(1084.152 63.816 0.1)
(1089.229 88.813 0.1)
(1093.598 114.238 0.1)
(1097.224 140.029 0.1)
(1100.077 166.119 0.1)
(1102.132 192.437 0.1)
(1103.373 218.909 0.1)
(1103.787 245.458 0.1)
(1103.373 272.008 0.1)
(1102.132 298.48 0.1)
(1100.077 324.798 0.1)
(1097.224 350.888 0.1)
(1093.598 376.679 0.1)
(1089.229 402.104 0.1)
(1084.152 427.101 0.1)
(1078.409 451.614 0.1)
(1072.041 475.592 0.1)
(1065.095 498.992 0.1)
(1057.621 521.776 0.1)
(1049.667 543.913 0.1)
(1041.284 565.379 0.1)
(1032.521 586.154 0.1)
(1023.427 606.227 0.1)
(1014.051 625.59 0.1)
(1004.436 644.24 0.1)
(994.627 662.18 0.1)
(984.664 679.416 0.1)
(974.586 695.958 0.1)
(964.428 711.816 0.1)
(954.223 727.008 0.1)
(944 741.549 0.1)
(933.787 755.458 0.1)
(923.608 768.756 0.1)
(913.484 781.462 0.1)
(903.435 793.599 0.1)
(893.478 805.187 0.1)
(883.626 816.25 0.1)
(873.894 826.808 0.1)
(864.292 836.884 0.1)
(573.787 555.458 0.1)
(-66.213 -74.542 0.1)
(-56.213 -74.542 0.1)
(-46.213 -74.542 0.1)
(-36.213 -74.542 0.1)
(-26.213 -74.542 0.1)
(-16.213 -74.542 0.1)
(-6.213 -74.542 0.1)
(3.787 -74.542 0.1)
(13.787 -74.542 0.1)
(23.787 -74.542 0.1)
(33.787 -74.542 0.1)
(43.787 -74.542 0.1)
(53.787 -74.542 0.1)
(63.787 -74.542 0.1)
(73.787 -74.542 0.1)
(83.787 -74.542 0.1)
(93.787 -74.542 0.1)
(103.787 -74.542 0.1)
(113.787 -74.542 0.1)
(123.787 -74.542 0.1)
(133.787 -74.542 0.1)
(143.787 -74.542 0.1)
(153.787 -74.542 0.1)
(163.787 -74.542 0.1)
(173.787 -74.542 0.1)
(183.787 -74.542 0.1)
(193.787 -74.542 0.1)
(203.787 -74.542 0.1)
(213.787 -74.542 0.1)
(223.787 -74.542 0.1)
(233.787 -74.542 0.1)
(243.787 -74.542 0.1)
(253.787 -74.542 0.1)
(263.787 -74.542 0.1)
(273.787 -74.542 0.1)
(283.787 -74.542 0.1)
(293.787 -74.542 0.1)
(303.787 -74.542 0.1)
(313.787 -74.542 0.1)
(323.787 -74.542 0.1)
(333.787 -74.542 0.1)
(343.787 -74.542 0.1)
(353.787 -74.542 0.1)
(363.787 -74.542 0.1)
(373.787 -74.542 0.1)
(383.787 -74.542 0.1)
(393.787 -74.542 0.1)
(403.787 -74.542 0.1)
(413.787 -74.542 0.1)
(423.787 -74.542 0.1)
(433.787 -74.542 0.1)
(443.787 -74.542 0.1)
(453.787 -74.542 0.1)
(463.787 -74.542 0.1)
(473.787 -74.542 0.1)
(483.787 -74.542 0.1)
(493.787 -74.542 0.1)
(503.787 -74.542 0.1)
(513.787 -74.542 0.1)
(523.787 -74.542 0.1)
(533.787 -74.542 0.1)
(543.787 -74.542 0.1)
(553.787 -74.542 0.1)
(563.787 -74.542 0.1)
(573.787 -74.542 0.1)
(-66.213 -64.542 0.1)
(-56.213 -64.542 0.1)
(-46.213 -64.542 0.1)
(-36.213 -64.542 0.1)
(-26.213 -64.542 0.1)
(-16.213 -64.542 0.1)
(-6.213 -64.542 0.1)
(3.787 -64.542 0.1)
(13.787 -64.542 0.1)
(23.787 -64.542 0.1)
(33.787 -64.542 0.1)
(43.787 -64.542 0.1)
(53.787 -64.542 0.1)
(63.787 -64.542 0.1)
(73.787 -64.542 0.1)
(83.787 -64.542 0.1)
(93.787 -64.542 0.1)
(103.787 -64.542 0.1)
(113.787 -64.542 0.1)
(123.787 -64.542 0.1)
(133.787 -64.542 0.1)
(143.787 -64.542 0.1)
(153.787 -64.542 0.1)
(163.787 -64.542 0.1)
(173.787 -64.542 0.1)
(183.787 -64.542 0.1)
(193.787 -64.542 0.1)
(203.787 -64.542 0.1)
(213.787 -64.542 0.1)
(223.787 -64.542 0.1)
(233.787 -64.542 0.1)
(243.787 -64.542 0.1)
(253.787 -64.542 0.1)
(263.787 -64.542 0.1)
(273.787 -64.542 0.1)
(283.787 -64.542 0.1)
(293.787 -64.542 0.1)
(303.787 -64.542 0.1)
(313.787 -64.542 0.1)
(323.787 -64.542 0.1)
(333.787 -64.542 0.1)
(343.787 -64.542 0.1)
(353.787 -64.542 0.1)
(363.787 -64.542 0.1)
(373.787 -64.542 0.1)
(383.787 -64.542 0.1)
(393.787 -64.542 0.1)
(403.787 -64.542 0.1)
(413.787 -64.542 0.1)
(423.787 -64.542 0.1)
(433.787 -64.542 0.1)
(443.787 -64.542 0.1)
(453.787 -64.542 0.1)
(463.787 -64.542 0.1)
(473.787 -64.542 0.1)
(483.787 -64.542 0.1)
(493.787 -64.542 0.1)
(503.787 -64.542 0.1)
(513.787 -64.542 0.1)
(523.787 -64.542 0.1)
(533.787 -64.542 0.1)
(543.787 -64.542 0.1)
(553.787 -64.542 0.1)
(563.787 -64.542 0.1)
(573.787 -64.542 0.1)
(-66.213 -54.542 0.1)
(-56.213 -54.542 0.1)
(-46.213 -54.542 0.1)
(-36.213 -54.542 0.1)
(-26.213 -54.542 0.1)
(-16.213 -54.542 0.1)
(-6.213 -54.542 0.1)
(3.787 -54.542 0.1)
(13.787 -54.542 0.1)
(23.787 -54.542 0.1)
(33.787 -54.542 0.1)
(43.787 -54.542 0.1)
(53.787 -54.542 0.1)
(63.787 -54.542 0.1)
(73.787 -54.542 0.1)
(83.787 -54.542 0.1)
(93.787 -54.542 0.1)
(103.787 -54.542 0.1)
(113.787 -54.542 0.1)
(123.787 -54.542 0.1)
(133.787 -54.542 0.1)
(143.787 -54.542 0.1)
(153.787 -54.542 0.1)
(163.787 -54.542 0.1)
(173.787 -54.542 0.1)
(183.787 -54.542 0.1)
(193.787 -54.542 0.1)
(203.787 -54.542 0.1)
(213.787 -54.542 0.1)
(223.787 -54.542 0.1)
(233.787 -54.542 0.1)
(243.787 -54.542 0.1)
(253.787 -54.542 0.1)
(263.787 -54.542 0.1)
(273.787 -54.542 0.1)
(283.787 -54.542 0.1)
(293.787 -54.542 0.1)
(303.787 -54.542 0.1)
(313.787 -54.542 0.1)
(323.787 -54.542 0.1)
(333.787 -54.542 0.1)
(343.787 -54.542 0.1)
(353.787 -54.542 0.1)
(363.787 -54.542 0.1)
(373.787 -54.542 0.1)
(383.787 -54.542 0.1)
(393.787 -54.542 0.1)
(403.787 -54.542 0.1)
(413.787 -54.542 0.1)
(423.787 -54.542 0.1)
(433.787 -54.542 0.1)
(443.787 -54.542 0.1)
(453.787 -54.542 0.1)
(463.787 -54.542 0.1)
(473.787 -54.542 0.1)
(483.787 -54.542 0.1)
(493.787 -54.542 0.1)
(503.787 -54.542 0.1)
(513.787 -54.542 0.1)
(523.787 -54.542 0.1)
(533.787 -54.542 0.1)
(543.787 -54.542 0.1)
(553.787 -54.542 0.1)
(563.787 -54.542 0.1)
(573.787 -54.542 0.1)
(-66.213 -44.542 0.1)
(-56.213 -44.542 0.1)
(-46.213 -44.542 0.1)
(-36.213 -44.542 0.1)
(-26.213 -44.542 0.1)
(-16.213 -44.542 0.1)
(-6.213 -44.542 0.1)
(3.787 -44.542 0.1)
(13.787 -44.542 0.1)
(23.787 -44.542 0.1)
(33.787 -44.542 0.1)
(43.787 -44.542 0.1)
(53.787 -44.542 0.1)
(63.787 -44.542 0.1)
(73.787 -44.542 0.1)
(83.787 -44.542 0.1)
(93.787 -44.542 0.1)
(103.787 -44.542 0.1)
(113.787 -44.542 0.1)
(123.787 -44.542 0.1)
(133.787 -44.542 0.1)
(143.787 -44.542 0.1)
(153.787 -44.542 0.1)
(163.787 -44.542 0.1)
(173.787 -44.542 0.1)
(183.787 -44.542 0.1)
(193.787 -44.542 0.1)
(203.787 -44.542 0.1)
(213.787 -44.542 0.1)
(223.787 -44.542 0.1)
(233.787 -44.542 0.1)
(243.787 -44.542 0.1)
(253.787 -44.542 0.1)
(263.787 -44.542 0.1)
(273.787 -44.542 0.1)
(283.787 -44.542 0.1)
(293.787 -44.542 0.1)
(303.787 -44.542 0.1)
(313.787 -44.542 0.1)
(323.787 -44.542 0.1)
(333.787 -44.542 0.1)
(343.787 -44.542 0.1)
(353.787 -44.542 0.1)
(363.787 -44.542 0.1)
(373.787 -44.542 0.1)
(383.787 -44.542 0.1)
(393.787 -44.542 0.1)
(403.787 -44.542 0.1)
(413.787 -44.542 0.1)
(423.787 -44.542 0.1)
(433.787 -44.542 0.1)
(443.787 -44.542 0.1)
(453.787 -44.542 0.1)
(463.787 -44.542 0.1)
(473.787 -44.542 0.1)
(483.787 -44.542 0.1)
(493.787 -44.542 0.1)
(503.787 -44.542 0.1)
(513.787 -44.542 0.1)
(523.787 -44.542 0.1)
(533.787 -44.542 0.1)
(543.787 -44.542 0.1)
(553.787 -44.542 0.1)
(563.787 -44.542 0.1)
(573.787 -44.542 0.1)
(-66.213 -34.542 0.1)
(-56.213 -34.542 0.1)
(-46.213 -34.542 0.1)
(-36.213 -34.542 0.1)
(-26.213 -34.542 0.1)
(-16.213 -34.542 0.1)
(-6.213 -34.542 0.1)
(3.787 -34.542 0.1)
(13.787 -34.542 0.1)
(23.787 -34.542 0.1)
(33.787 -34.542 0.1)
(43.787 -34.542 0.1)
(53.787 -34.542 0.1)
(63.787 -34.542 0.1)
(73.787 -34.542 0.1)
(83.787 -34.542 0.1)
(93.787 -34.542 0.1)
(103.787 -34.542 0.1)
(113.787 -34.542 0.1)
(123.787 -34.542 0.1)
(133.787 -34.542 0.1)
(143.787 -34.542 0.1)
(153.787 -34.542 0.1)
(163.787 -34.542 0.1)
(173.787 -34.542 0.1)
(183.787 -34.542 0.1)
(193.787 -34.542 0.1)
(203.787 -34.542 0.1)
(213.787 -34.542 0.1)
(223.787 -34.542 0.1)
(233.787 -34.542 0.1)
(243.787 -34.542 0.1)
(253.787 -34.542 0.1)
(263.787 -34.542 0.1)
(273.787 -34.542 0.1)
(283.787 -34.542 0.1)
(293.787 -34.542 0.1)
(303.787 -34.542 0.1)
(313.787 -34.542 0.1)
(323.787 -34.542 0.1)
(333.787 -34.542 0.1)
(343.787 -34.542 0.1)
(353.787 -34.542 0.1)
(363.787 -34.542 0.1)
(373.787 -34.542 0.1)
(383.787 -34.542 0.1)
(393.787 -34.542 0.1)
(403.787 -34.542 0.1)
(413.787 -34.542 0.1)
(423.787 -34.542 0.1)
(433.787 -34.542 0.1)
(443.787 -34.542 0.1)
(453.787 -34.542 0.1)
(463.787 -34.542 0.1)
(473.787 -34.542 0.1)
(483.787 -34.542 0.1)
(493.787 -34.542 0.1)
(503.787 -34.542 0.1)
(513.787 -34.542 0.1)
(523.787 -34.542 0.1)
(533.787 -34.542 0.1)
(543.787 -34.542 0.1)
(553.787 -34.542 0.1)
(563.787 -34.542 0.1)
(573.787 -34.542 0.1)
(-66.213 -24.542 0.1)
(-56.213 -24.542 0.1)
(-46.213 -24.542 0.1)
(-36.213 -24.542 0.1)
(-26.213 -24.542 0.1)
(-16.213 -24.542 0.1)
(-6.213 -24.542 0.1)
(3.787 -24.542 0.1)
(13.787 -24.542 0.1)
(23.787 -24.542 0.1)
(33.787 -24.542 0.1)
(43.787 -24.542 0.1)
(53.787 -24.542 0.1)
(63.787 -24.542 0.1)
(73.787 -24.542 0.1)
(83.787 -24.542 0.1)
(93.787 -24.542 0.1)
(103.787 -24.542 0.1)
(113.787 -24.542 0.1)
(123.787 -24.542 0.1)
(133.787 -24.542 0.1)
(143.787 -24.542 0.1)
(153.787 -24.542 0.1)
(163.787 -24.542 0.1)
(173.787 -24.542 0.1)
(183.787 -24.542 0.1)
(193.787 -24.542 0.1)
(203.787 -24.542 0.1)
(213.787 -24.542 0.1)
(223.787 -24.542 0.1)
(233.787 -24.542 0.1)
(243.787 -24.542 0.1)
(253.787 -24.542 0.1)
(263.787 -24.542 0.1)
(273.787 -24.542 0.1)
(283.787 -24.542 0.1)
(293.787 -24.542 0.1)
(303.787 -24.542 0.1)
(313.787 -24.542 0.1)
(323.787 -24.542 0.1)
(333.787 -24.542 0.1)
(343.787 -24.542 0.1)
(353.787 -24.542 0.1)
(363.787 -24.542 0.1)
(373.787 -24.542 0.1)
(383.787 -24.542 0.1)
(393.787 -24.542 0.1)
(403.787 -24.542 0.1)
(413.787 -24.542 0.1)
(423.787 -24.542 0.1)
(433.787 -24.542 0.1)
(443.787 -24.542 0.1)
(453.787 -24.542 0.1)
(463.787 -24.542 0.1)
(473.787 -24.542 0.1)
(483.787 -24.542 0.1)
(493.787 -24.542 0.1)
(503.787 -24.542 0.1)
(513.787 -24.542 0.1)
(523.787 -24.542 0.1)
(533.787 -24.542 0.1)
(543.787 -24.542 0.1)
(553.787 -24.542 0.1)
(563.787 -24.542 0.1)
(573.787 -24.542 0.1)
(-66.213 -14.542 0.1)
(-56.213 -14.542 0.1)
(-46.213 -14.542 0.1)
(-36.213 -14.542 0.1)
(-26.213 -14.542 0.1)
(-16.213 -14.542 0.1)
(-6.213 -14.542 0.1)
(3.787 -14.542 0.1)
(13.787 -14.542 0.1)
(23.787 -14.542 0.1)
(33.787 -14.542 0.1)
(43.787 -14.542 0.1)
(53.787 -14.542 0.1)
(63.787 -14.542 0.1)
(73.787 -14.542 0.1)
(83.787 -14.542 0.1)
(93.787 -14.542 0.1)
(103.787 -14.542 0.1)
(113.787 -14.542 0.1)
(123.787 -14.542 0.1)
(133.787 -14.542 0.1)
(143.787 -14.542 0.1)
(153.787 -14.542 0.1)
(163.787 -14.542 0.1)
(173.787 -14.542 0.1)
(183.787 -14.542 0.1)
(193.787 -14.542 0.1)
(203.787 -14.542 0.1)
(213.787 -14.542 0.1)
(223.787 -14.542 0.1)
(233.787 -14.542 0.1)
(243.787 -14.542 0.1)
(253.787 -14.542 0.1)
(263.787 -14.542 0.1)
(273.787 -14.542 0.1)
(283.787 -14.542 0.1)
(293.787 -14.542 0.1)
(303.787 -14.542 0.1)
(313.787 -14.542 0.1)
(323.787 -14.542 0.1)
(333.787 -14.542 0.1)
(343.787 -14.542 0.1)
(353.787 -14.542 0.1)
(363.787 -14.542 0.1)
(373.787 -14.542 0.1)
(383.787 -14.542 0.1)
(393.787 -14.542 0.1)
(403.787 -14.542 0.1)
(413.787 -14.542 0.1)
(423.787 -14.542 0.1)
(433.787 -14.542 0.1)
(443.787 -14.542 0.1)
(453.787 -14.542 0.1)
(463.787 -14.542 0.1)
(473.787 -14.542 0.1)
(483.787 -14.542 0.1)
(493.787 -14.542 0.1)
(503.787 -14.542 0.1)
(513.787 -14.542 0.1)
(523.787 -14.542 0.1)
(533.787 -14.542 0.1)
(543.787 -14.542 0.1)
(553.787 -14.542 0.1)
(563.787 -14.542 0.1)
(573.787 -14.542 0.1)
(-66.213 -4.542 0.1)
(-56.213 -4.542 0.1)
(-46.213 -4.542 0.1)
(-36.213 -4.542 0.1)
(-26.213 -4.542 0.1)
(-16.213 -4.542 0.1)
(-6.213 -4.542 0.1)
(3.787 -4.542 0.1)
(13.787 -4.542 0.1)
(23.787 -4.542 0.1)
(33.787 -4.542 0.1)
(43.787 -4.542 0.1)
(53.787 -4.542 0.1)
(63.787 -4.542 0.1)
(73.787 -4.542 0.1)
(83.787 -4.542 0.1)
(93.787 -4.542 0.1)
(103.787 -4.542 0.1)
(113.787 -4.542 0.1)
(123.787 -4.542 0.1)
(133.787 -4.542 0.1)
(143.787 -4.542 0.1)
(153.787 -4.542 0.1)
(163.787 -4.542 0.1)
(173.787 -4.542 0.1)
(183.787 -4.542 0.1)
(193.787 -4.542 0.1)
(203.787 -4.542 0.1)
(213.787 -4.542 0.1)
(223.787 -4.542 0.1)
(233.787 -4.542 0.1)
(243.787 -4.542 0.1)
(253.787 -4.542 0.1)
(263.787 -4.542 0.1)
(273.787 -4.542 0.1)
(283.787 -4.542 0.1)
(293.787 -4.542 0.1)
(303.787 -4.542 0.1)
(313.787 -4.542 0.1)
(323.787 -4.542 0.1)
(333.787 -4.542 0.1)
(343.787 -4.542 0.1)
(353.787 -4.542 0.1)
(363.787 -4.542 0.1)
(373.787 -4.542 0.1)
(383.787 -4.542 0.1)
(393.787 -4.542 0.1)
(403.787 -4.542 0.1)
(413.787 -4.542 0.1)
(423.787 -4.542 0.1)
(433.787 -4.542 0.1)
(443.787 -4.542 0.1)
(453.787 -4.542 0.1)
(463.787 -4.542 0.1)
(473.787 -4.542 0.1)
(483.787 -4.542 0.1)
(493.787 -4.542 0.1)
(503.787 -4.542 0.1)
(513.787 -4.542 0.1)
(523.787 -4.542 0.1)
(533.787 -4.542 0.1)
(543.787 -4.542 0.1)
(553.787 -4.542 0.1)
(563.787 -4.542 0.1)
(573.787 -4.542 0.1)
(-66.213 5.458 0.1)
(-56.213 5.458 0.1)
(-46.213 5.458 0.1)
(-36.213 5.458 0.1)
(-26.213 5.458 0.1)
(-16.213 5.458 0.1)
(-6.213 5.458 0.1)
(3.787 5.458 0.1)
(13.787 5.458 0.1)
(23.787 5.458 0.1)
(33.787 5.458 0.1)
(43.787 5.458 0.1)
(53.787 5.458 0.1)
(63.787 5.458 0.1)
(73.787 5.458 0.1)
(83.787 5.458 0.1)
(93.787 5.458 0.1)
(103.787 5.458 0.1)
(113.787 5.458 0.1)
(123.787 5.458 0.1)
(133.787 5.458 0.1)
(143.787 5.458 0.1)
(153.787 5.458 0.1)
(163.787 5.458 0.1)
(173.787 5.458 0.1)
(183.787 5.458 0.1)
(193.787 5.458 0.1)
(203.787 5.458 0.1)
(213.787 5.458 0.1)
(223.787 5.458 0.1)
(233.787 5.458 0.1)
(243.787 5.458 0.1)
(253.787 5.458 0.1)
(263.787 5.458 0.1)
(273.787 5.458 0.1)
(283.787 5.458 0.1)
(293.787 5.458 0.1)
(303.787 5.458 0.1)
(313.787 5.458 0.1)
(323.787 5.458 0.1)
(333.787 5.458 0.1)
(343.787 5.458 0.1)
(353.787 5.458 0.1)
(363.787 5.458 0.1)
(373.787 5.458 0.1)
(383.787 5.458 0.1)
(393.787 5.458 0.1)
(403.787 5.458 0.1)
(413.787 5.458 0.1)
(423.787 5.458 0.1)
(433.787 5.458 0.1)
(443.787 5.458 0.1)
(453.787 5.458 0.1)
(463.787 5.458 0.1)
(473.787 5.458 0.1)
(483.787 5.458 0.1)
(493.787 5.458 0.1)
(503.787 5.458 0.1)
(513.787 5.458 0.1)
(523.787 5.458 0.1)
(533.787 5.458 0.1)
(543.787 5.458 0.1)
(553.787 5.458 0.1)
(563.787 5.458 0.1)
(573.787 5.458 0.1)
(-66.213 15.458 0.1)
(-56.213 15.458 0.1)
(-46.213 15.458 0.1)
(-36.213 15.458 0.1)
(-26.213 15.458 0.1)
(-16.213 15.458 0.1)
(-6.213 15.458 0.1)
(3.787 15.458 0.1)
(13.787 15.458 0.1)
(23.787 15.458 0.1)
(33.787 15.458 0.1)
(43.787 15.458 0.1)
(53.787 15.458 0.1)
(63.787 15.458 0.1)
(73.787 15.458 0.1)
(83.787 15.458 0.1)
(93.787 15.458 0.1)
(103.787 15.458 0.1)
(113.787 15.458 0.1)
(123.787 15.458 0.1)
(133.787 15.458 0.1)
(143.787 15.458 0.1)
(153.787 15.458 0.1)
(163.787 15.458 0.1)
(173.787 15.458 0.1)
(183.787 15.458 0.1)
(193.787 15.458 0.1)
(203.787 15.458 0.1)
(213.787 15.458 0.1)
(223.787 15.458 0.1)
(233.787 15.458 0.1)
(243.787 15.458 0.1)
(253.787 15.458 0.1)
(263.787 15.458 0.1)
(273.787 15.458 0.1)
(283.787 15.458 0.1)
(293.787 15.458 0.1)
(303.787 15.458 0.1)
(313.787 15.458 0.1)
(323.787 15.458 0.1)
(333.787 15.458 0.1)
(343.787 15.458 0.1)
(353.787 15.458 0.1)
(363.787 15.458 0.1)
(373.787 15.458 0.1)
(383.787 15.458 0.1)
(393.787 15.458 0.1)
(403.787 15.458 0.1)
(413.787 15.458 0.1)
(423.787 15.458 0.1)
(433.787 15.458 0.1)
(443.787 15.458 0.1)
(453.787 15.458 0.1)
(463.787 15.458 0.1)
(473.787 15.458 0.1)
(483.787 15.458 0.1)
(493.787 15.458 0.1)
(503.787 15.458 0.1)
(513.787 15.458 0.1)
(523.787 15.458 0.1)
(533.787 15.458 0.1)
(543.787 15.458 0.1)
(553.787 15.458 0.1)
(563.787 15.458 0.1)
(573.787 15.458 0.1)
(-66.213 25.458 0.1)
(-56.213 25.458 0.1)
(-46.213 25.458 0.1)
(-36.213 25.458 0.1)
(-26.213 25.458 0.1)
(-16.213 25.458 0.1)
(-6.213 25.458 0.1)
(3.787 25.458 0.1)
(13.787 25.458 0.1)
(23.787 25.458 0.1)
(33.787 25.458 0.1)
(43.787 25.458 0.1)
(53.787 25.458 0.1)
(63.787 25.458 0.1)
(73.787 25.458 0.1)
(83.787 25.458 0.1)
(93.787 25.458 0.1)
(103.787 25.458 0.1)
(113.787 25.458 0.1)
(123.787 25.458 0.1)
(133.787 25.458 0.1)
(143.787 25.458 0.1)
(153.787 25.458 0.1)
(163.787 25.458 0.1)
(173.787 25.458 0.1)
(183.787 25.458 0.1)
(193.787 25.458 0.1)
(203.787 25.458 0.1)
(213.787 25.458 0.1)
(223.787 25.458 0.1)
(233.787 25.458 0.1)
(243.787 25.458 0.1)
(253.787 25.458 0.1)
(263.787 25.458 0.1)
(273.787 25.458 0.1)
(283.787 25.458 0.1)
(293.787 25.458 0.1)
(303.787 25.458 0.1)
(313.787 25.458 0.1)
(323.787 25.458 0.1)
(333.787 25.458 0.1)
(343.787 25.458 0.1)
(353.787 25.458 0.1)
(363.787 25.458 0.1)
(373.787 25.458 0.1)
(383.787 25.458 0.1)
(393.787 25.458 0.1)
(403.787 25.458 0.1)
(413.787 25.458 0.1)
(423.787 25.458 0.1)
(433.787 25.458 0.1)
(443.787 25.458 0.1)
(453.787 25.458 0.1)
(463.787 25.458 0.1)
(473.787 25.458 0.1)
(483.787 25.458 0.1)
(493.787 25.458 0.1)
(503.787 25.458 0.1)
(513.787 25.458 0.1)
(523.787 25.458 0.1)
(533.787 25.458 0.1)
(543.787 25.458 0.1)
(553.787 25.458 0.1)
(563.787 25.458 0.1)
(573.787 25.458 0.1)
(-66.213 35.458 0.1)
(-56.213 35.458 0.1)
(-46.213 35.458 0.1)
(-36.213 35.458 0.1)
(-26.213 35.458 0.1)
(-16.213 35.458 0.1)
(-6.213 35.458 0.1)
(3.787 35.458 0.1)
(13.787 35.458 0.1)
(23.787 35.458 0.1)
(33.787 35.458 0.1)
(43.787 35.458 0.1)
(53.787 35.458 0.1)
(63.787 35.458 0.1)
(73.787 35.458 0.1)
(83.787 35.458 0.1)
(93.787 35.458 0.1)
(103.787 35.458 0.1)
(113.787 35.458 0.1)
(123.787 35.458 0.1)
(133.787 35.458 0.1)
(143.787 35.458 0.1)
(153.787 35.458 0.1)
(163.787 35.458 0.1)
(173.787 35.458 0.1)
(183.787 35.458 0.1)
(193.787 35.458 0.1)
(203.787 35.458 0.1)
(213.787 35.458 0.1)
(223.787 35.458 0.1)
(233.787 35.458 0.1)
(243.787 35.458 0.1)
(253.787 35.458 0.1)
(263.787 35.458 0.1)
(273.787 35.458 0.1)
(283.787 35.458 0.1)
(293.787 35.458 0.1)
(303.787 35.458 0.1)
(313.787 35.458 0.1)
(323.787 35.458 0.1)
(333.787 35.458 0.1)
(343.787 35.458 0.1)
(353.787 35.458 0.1)
(363.787 35.458 0.1)
(373.787 35.458 0.1)
(383.787 35.458 0.1)
(393.787 35.458 0.1)
(403.787 35.458 0.1)
(413.787 35.458 0.1)
(423.787 35.458 0.1)
(433.787 35.458 0.1)
(443.787 35.458 0.1)
(453.787 35.458 0.1)
(463.787 35.458 0.1)
(473.787 35.458 0.1)
(483.787 35.458 0.1)
(493.787 35.458 0.1)
(503.787 35.458 0.1)
(513.787 35.458 0.1)
(523.787 35.458 0.1)
(533.787 35.458 0.1)
(543.787 35.458 0.1)
(553.787 35.458 0.1)
(563.787 35.458 0.1)
(573.787 35.458 0.1)
(-66.213 45.458 0.1)
(-56.213 45.458 0.1)
(-46.213 45.458 0.1)
(-36.213 45.458 0.1)
(-26.213 45.458 0.1)
(-16.213 45.458 0.1)
(-6.213 45.458 0.1)
(3.787 45.458 0.1)
(13.787 45.458 0.1)
(23.787 45.458 0.1)
(33.787 45.458 0.1)
(43.787 45.458 0.1)
(53.787 45.458 0.1)
(63.787 45.458 0.1)
(73.787 45.458 0.1)
(83.787 45.458 0.1)
(93.787 45.458 0.1)
(103.787 45.458 0.1)
(113.787 45.458 0.1)
(123.787 45.458 0.1)
(133.787 45.458 0.1)
(143.787 45.458 0.1)
(153.787 45.458 0.1)
(163.787 45.458 0.1)
(173.787 45.458 0.1)
(183.787 45.458 0.1)
(193.787 45.458 0.1)
(203.787 45.458 0.1)
(213.787 45.458 0.1)
(223.787 45.458 0.1)
(233.787 45.458 0.1)
(243.787 45.458 0.1)
(253.787 45.458 0.1)
(263.787 45.458 0.1)
(273.787 45.458 0.1)
(283.787 45.458 0.1)
(293.787 45.458 0.1)
(303.787 45.458 0.1)
(313.787 45.458 0.1)
(323.787 45.458 0.1)
(333.787 45.458 0.1)
(343.787 45.458 0.1)
(353.787 45.458 0.1)
(363.787 45.458 0.1)
(373.787 45.458 0.1)
(383.787 45.458 0.1)
(393.787 45.458 0.1)
(403.787 45.458 0.1)
(413.787 45.458 0.1)
(423.787 45.458 0.1)
(433.787 45.458 0.1)
(443.787 45.458 0.1)
(453.787 45.458 0.1)
(463.787 45.458 0.1)
(473.787 45.458 0.1)
(483.787 45.458 0.1)
(493.787 45.458 0.1)
(503.787 45.458 0.1)
(513.787 45.458 0.1)
(523.787 45.458 0.1)
(533.787 45.458 0.1)
(543.787 45.458 0.1)
(553.787 45.458 0.1)
(563.787 45.458 0.1)
(573.787 45.458 0.1)
(-66.213 55.458 0.1)
(-56.213 55.458 0.1)
(-46.213 55.458 0.1)
(-36.213 55.458 0.1)
(-26.213 55.458 0.1)
(-16.213 55.458 0.1)
(-6.213 55.458 0.1)
(3.787 55.458 0.1)
(13.787 55.458 0.1)
(23.787 55.458 0.1)
(33.787 55.458 0.1)
(43.787 55.458 0.1)
(53.787 55.458 0.1)
(63.787 55.458 0.1)
(73.787 55.458 0.1)
(83.787 55.458 0.1)
(93.787 55.458 0.1)
(103.787 55.458 0.1)
(113.787 55.458 0.1)
(123.787 55.458 0.1)
(133.787 55.458 0.1)
(143.787 55.458 0.1)
(153.787 55.458 0.1)
(163.787 55.458 0.1)
(173.787 55.458 0.1)
(183.787 55.458 0.1)
(193.787 55.458 0.1)
(203.787 55.458 0.1)
(213.787 55.458 0.1)
(223.787 55.458 0.1)
(233.787 55.458 0.1)
(243.787 55.458 0.1)
(253.787 55.458 0.1)
(263.787 55.458 0.1)
(273.787 55.458 0.1)
(283.787 55.458 0.1)
(293.787 55.458 0.1)
(303.787 55.458 0.1)
(313.787 55.458 0.1)
(323.787 55.458 0.1)
(333.787 55.458 0.1)
(343.787 55.458 0.1)
(353.787 55.458 0.1)
(363.787 55.458 0.1)
(373.787 55.458 0.1)
(383.787 55.458 0.1)
(393.787 55.458 0.1)
(403.787 55.458 0.1)
(413.787 55.458 0.1)
(423.787 55.458 0.1)
(433.787 55.458 0.1)
(443.787 55.458 0.1)
(453.787 55.458 0.1)
(463.787 55.458 0.1)
(473.787 55.458 0.1)
(483.787 55.458 0.1)
(493.787 55.458 0.1)
(503.787 55.458 0.1)
(513.787 55.458 0.1)
(523.787 55.458 0.1)
(533.787 55.458 0.1)
(543.787 55.458 0.1)
(553.787 55.458 0.1)
(563.787 55.458 0.1)
(573.787 55.458 0.1)
(-66.213 65.458 0.1)
(-56.213 65.458 0.1)
(-46.213 65.458 0.1)
(-36.213 65.458 0.1)
(-26.213 65.458 0.1)
(-16.213 65.458 0.1)
(-6.213 65.458 0.1)
(3.787 65.458 0.1)
(13.787 65.458 0.1)
(23.787 65.458 0.1)
(33.787 65.458 0.1)
(43.787 65.458 0.1)
(53.787 65.458 0.1)
(63.787 65.458 0.1)
(73.787 65.458 0.1)
(83.787 65.458 0.1)
(93.787 65.458 0.1)
(103.787 65.458 0.1)
(113.787 65.458 0.1)
(123.787 65.458 0.1)
(133.787 65.458 0.1)
(143.787 65.458 0.1)
(153.787 65.458 0.1)
(163.787 65.458 0.1)
(173.787 65.458 0.1)
(183.787 65.458 0.1)
(193.787 65.458 0.1)
(203.787 65.458 0.1)
(213.787 65.458 0.1)
(223.787 65.458 0.1)
(233.787 65.458 0.1)
(243.787 65.458 0.1)
(253.787 65.458 0.1)
(263.787 65.458 0.1)
(273.787 65.458 0.1)
(283.787 65.458 0.1)
(293.787 65.458 0.1)
(303.787 65.458 0.1)
(313.787 65.458 0.1)
(323.787 65.458 0.1)
(333.787 65.458 0.1)
(343.787 65.458 0.1)
(353.787 65.458 0.1)
(363.787 65.458 0.1)
(373.787 65.458 0.1)
(383.787 65.458 0.1)
(393.787 65.458 0.1)
(403.787 65.458 0.1)
(413.787 65.458 0.1)
(423.787 65.458 0.1)
(433.787 65.458 0.1)
(443.787 65.458 0.1)
(453.787 65.458 0.1)
(463.787 65.458 0.1)
(473.787 65.458 0.1)
(483.787 65.458 0.1)
(493.787 65.458 0.1)
(503.787 65.458 0.1)
(513.787 65.458 0.1)
(523.787 65.458 0.1)
(533.787 65.458 0.1)
(543.787 65.458 0.1)
(553.787 65.458 0.1)
(563.787 65.458 0.1)
(573.787 65.458 0.1)
(-66.213 75.458 0.1)
(-56.213 75.458 0.1)
(-46.213 75.458 0.1)
(-36.213 75.458 0.1)
(-26.213 75.458 0.1)
(-16.213 75.458 0.1)
(-6.213 75.458 0.1)
(3.787 75.458 0.1)
(13.787 75.458 0.1)
(23.787 75.458 0.1)
(33.787 75.458 0.1)
(43.787 75.458 0.1)
(53.787 75.458 0.1)
(63.787 75.458 0.1)
(73.787 75.458 0.1)
(83.787 75.458 0.1)
(93.787 75.458 0.1)
(103.787 75.458 0.1)
(113.787 75.458 0.1)
(123.787 75.458 0.1)
(133.787 75.458 0.1)
(143.787 75.458 0.1)
(153.787 75.458 0.1)
(163.787 75.458 0.1)
(173.787 75.458 0.1)
(183.787 75.458 0.1)
(193.787 75.458 0.1)
(203.787 75.458 0.1)
(213.787 75.458 0.1)
(223.787 75.458 0.1)
(233.787 75.458 0.1)
(243.787 75.458 0.1)
(253.787 75.458 0.1)
(263.787 75.458 0.1)
(273.787 75.458 0.1)
(283.787 75.458 0.1)
(293.787 75.458 0.1)
(303.787 75.458 0.1)
(313.787 75.458 0.1)
(323.787 75.458 0.1)
(333.787 75.458 0.1)
(343.787 75.458 0.1)
(353.787 75.458 0.1)
(363.787 75.458 0.1)
(373.787 75.458 0.1)
(383.787 75.458 0.1)
(393.787 75.458 0.1)
(403.787 75.458 0.1)
(413.787 75.458 0.1)
(423.787 75.458 0.1)
(433.787 75.458 0.1)
(443.787 75.458 0.1)
(453.787 75.458 0.1)
(463.787 75.458 0.1)
(473.787 75.458 0.1)
(483.787 75.458 0.1)
(493.787 75.458 0.1)
(503.787 75.458 0.1)
(513.787 75.458 0.1)
(523.787 75.458 0.1)
(533.787 75.458 0.1)
(543.787 75.458 0.1)
(553.787 75.458 0.1)
(563.787 75.458 0.1)
(573.787 75.458 0.1)
(-66.213 85.458 0.1)
(-56.213 85.458 0.1)
(-46.213 85.458 0.1)
(-36.213 85.458 0.1)
(-26.213 85.458 0.1)
(-16.213 85.458 0.1)
(-6.213 85.458 0.1)
(3.787 85.458 0.1)
(13.787 85.458 0.1)
(23.787 85.458 0.1)
(33.787 85.458 0.1)
(43.787 85.458 0.1)
(53.787 85.458 0.1)
(63.787 85.458 0.1)
(73.787 85.458 0.1)
(83.787 85.458 0.1)
(93.787 85.458 0.1)
(103.787 85.458 0.1)
(113.787 85.458 0.1)
(123.787 85.458 0.1)
(133.787 85.458 0.1)
(143.787 85.458 0.1)
(153.787 85.458 0.1)
(163.787 85.458 0.1)
(173.787 85.458 0.1)
(183.787 85.458 0.1)
(193.787 85.458 0.1)
(203.787 85.458 0.1)
(213.787 85.458 0.1)
(223.787 85.458 0.1)
(233.787 85.458 0.1)
(243.787 85.458 0.1)
(253.787 85.458 0.1)
(263.787 85.458 0.1)
(273.787 85.458 0.1)
(283.787 85.458 0.1)
(293.787 85.458 0.1)
(303.787 85.458 0.1)
(313.787 85.458 0.1)
(323.787 85.458 0.1)
(333.787 85.458 0.1)
(343.787 85.458 0.1)
(353.787 85.458 0.1)
(363.787 85.458 0.1)
(373.787 85.458 0.1)
(383.787 85.458 0.1)
(393.787 85.458 0.1)
(403.787 85.458 0.1)
(413.787 85.458 0.1)
(423.787 85.458 0.1)
(433.787 85.458 0.1)
(443.787 85.458 0.1)
(453.787 85.458 0.1)
(463.787 85.458 0.1)
(473.787 85.458 0.1)