

/*--------------------------------*- C++ -*----------------------------------*\
  =========                 |
  \\      /  F ield         | OpenFOAM: The Open Source CFD Toolbox
   \\    /   O peration     | Website:  https://openfoam.org
    \\  /    A nd           | Version:  8
     \\/     M anipulation  |
\*---------------------------------------------------------------------------*/
FoamFile
{
    version     2.0;
    format      ascii;
    class       dictionary;
    object      fvSolution;
}

// * * * * * * * * * * * * * * * * * * * * * * * * * * * * * * * * * * * * * //

solvers
{
	p
    {
        solver          PCG;
        preconditioner  DIC;
        tolerance       1e-12;
        relTol          0.01;
        minIter         1;
    }

    U
    {
        solver          PBiCGStab;
        preconditioner  DILU;
        tolerance       1e-12;
        relTol          0.1;
        minIter         1;
    }
    k
    {
        solver          PBiCGStab;
        preconditioner  DILU;
        tolerance       1e-12;
        relTol          0.1;
        minIter         1;
    }

    omega
    {
        solver          PBiCGStab;
        preconditioner  DILU;
        tolerance       1e-12;
        relTol          0.1;
        minIter         1;
    }

	epsilon
    {
        solver          PBiCGStab;
        preconditioner  DILU;
        tolerance       1e-12;
        relTol          0.1;
        minIter         1;
    }
    aoa
    {
      solver              PBiCGStab;
      preconditioner      DILU;
      tolerance           1e-12;
      relTol              0.1;
      minIter             1;
      maxIter             10;
    }
}

SIMPLE
{
    residualControl
    {
	    p               1e-5;
        U               1e-4;
    }

    nCorrectors     2;
    nNonOrthogonalCorrectors 2;
    pRefCell            0;
    pRefValue           0;
    

    nNonOrthogonalCorrectors 0;
    numberIterationsStator 1;
    numberIterationsRotor 1;
    UMax      25;
    pMin      pMin   [0 2 -2 0 0 0 0]    -1000;
    pMax      pMax   [0 2 -2 0 0 0 0]     1000;    
    
}
cache
{
    grad(U);
}

potentialFlow
{
    nNonOrthogonalCorrectors 5;
}


relaxationFactors
{
    fields
    {
		p               0.3;
        aoa             0.5;
    }

    equations
    {
        U               0.3;
        k               0.1;
        omega           0.1;
		epsilon         0.1;
    }
}

