/*--------------------------------*- C++ -*----------------------------------*\
 | =========                 |                                                 |
 | \\      /  F ield         | OpenFOAM: The Open Source CFD Toolbox           |
 |  \\    /   O peration     | Version:  2.2.2                                 |
 |   \\  /    A nd           | Web:      www.OpenFOAM.org                      |
 |    \\/     M anipulation  |                                                 |
 \*---------------------------------------------------------------------------*/
    FoamFile
{
    version     2.0;
    format ascii;
    class volScalarField;
    location    "0";
    object nut;
}

// * * * * * * * * * * * * * * * * * * * * * * * * * * * * * * * * * * * * * //

dimensions [0 2 -1 0 0 0 0];

#include		"initialConditions";

internalField uniform $turbulentKE;

boundaryField
{
    frontAndBack
    {
        type calculated;
        value uniform 0;
    }

patch0

{
type calculated;
value uniform 0;
}
patch1

{
type calculated;
value uniform 0;
}
patch2

{
type calculated;
value uniform 0;
}
patch3

{
type calculated;
value uniform 0;
}
patch4

{
type calculated;
value uniform 0;
}
patch5

{
type calculated;
value uniform 0;
}
patch6

{
type calculated;
value uniform 0;
}
patch7

{
type calculated;
value uniform 0;
}
patch8

{
type calculated;
value uniform 0;
}
patch9

{
type calculated;
value uniform 0;
}
patch10

{
type calculated;
value uniform 0;
}
patch11

{
type calculated;
value uniform 0;
}
patch12

{
type calculated;
value uniform 0;
}
patch13

{
type calculated;
value uniform 0;
}
patch14

{
type calculated;
value uniform 0;
}
patch15

{
type calculated;
value uniform 0;
}
patch16

{
type calculated;
value uniform 0;
}
patch17

{
type calculated;
value uniform 0;
}
patch18

{
type calculated;
value uniform 0;
}
patch19

{
type calculated;
value uniform 0;
}
patch20

{
type calculated;
value uniform 0;
}
patch21

{
type calculated;
value uniform 0;
}
patch22

{
type calculated;
value uniform 0;
}
patch23

{
type calculated;
value uniform 0;
}
patch24

{
type calculated;
value uniform 0;
}
patch25

{
type calculated;
value uniform 0;
}
patch26

{
type calculated;
value uniform 0;
}
patch27

{
type calculated;
value uniform 0;
}
patch28

{
type calculated;
value uniform 0;
}
patch29

{
type calculated;
value uniform 0;
}
patch30

{
type calculated;
value uniform 0;
}
patch31

{
type calculated;
value uniform 0;
}
patch32

{
type calculated;
value uniform 0;
}
patch33

{
type calculated;
value uniform 0;
}
patch34

{
type calculated;
value uniform 0;
}
patch35

{
type calculated;
value uniform 0;
}
patch36

{
type calculated;
value uniform 0;
}
patch37

{
type calculated;
value uniform 0;
}
patch38

{
type calculated;
value uniform 0;
}
patch39

{
type calculated;
value uniform 0;
}
patch40

{
type calculated;
value uniform 0;
}
patch41

{
type calculated;
value uniform 0;
}
patch42

{
type calculated;
value uniform 0;
}
patch43

{
type calculated;
value uniform 0;
}
patch44

{
type calculated;
value uniform 0;
}
patch45

{
type calculated;
value uniform 0;
}
patch46

{
type calculated;
value uniform 0;
}
patch47

{
type calculated;
value uniform 0;
}
patch48

{
type calculated;
value uniform 0;
}
patch49

{
type calculated;
value uniform 0;
}
patch50

{
type calculated;
value uniform 0;
}
patch51

{
type calculated;
value uniform 0;
}
patch52

{
type calculated;
value uniform 0;
}
patch53

{
type calculated;
value uniform 0;
}
patch54

{
type calculated;
value uniform 0;
}
patch55

{
type calculated;
value uniform 0;
}
patch56

{
type calculated;
value uniform 0;
}
patch57

{
type calculated;
value uniform 0;
}
patch58

{
type calculated;
value uniform 0;
}
patch59

{
type calculated;
value uniform 0;
}
patch60

{
type calculated;
value uniform 0;
}
patch61

{
type calculated;
value uniform 0;
}
patch62

{
type calculated;
value uniform 0;
}
patch63

{
type calculated;
value uniform 0;
}
patch64

{
type calculated;
value uniform 0;
}
patch65

{
type calculated;
value uniform 0;
}
patch66

{
type calculated;
value uniform 0;
}
patch67

{
type calculated;
value uniform 0;
}
patch68

{
type calculated;
value uniform 0;
}
patch69

{
type calculated;
value uniform 0;
}
patch70

{
type calculated;
value uniform 0;
}
patch71

{
type calculated;
value uniform 0;
}
patch72

{
type calculated;
value uniform 0;
}
patch73

{
type calculated;
value uniform 0;
}
patch74

{
type calculated;
value uniform 0;
}
patch75

{
type calculated;
value uniform 0;
}
patch76

{
type calculated;
value uniform 0;
}
patch77

{
type calculated;
value uniform 0;
}
patch78

{
type calculated;
value uniform 0;
}
patch79

{
type calculated;
value uniform 0;
}
patch80

{
type calculated;
value uniform 0;
}
patch81

{
type calculated;
value uniform 0;
}
patch82

{
type calculated;
value uniform 0;
}
patch83

{
type calculated;
value uniform 0;
}
patch84

{
type calculated;
value uniform 0;
}
patch85

{
type calculated;
value uniform 0;
}
patch86

{
type calculated;
value uniform 0;
}
patch87

{
type calculated;
value uniform 0;
}
patch88

{
type calculated;
value uniform 0;
}
patch89

{
type calculated;
value uniform 0;
}
patch90

{
type calculated;
value uniform 0;
}
patch91

{
type calculated;
value uniform 0;
}
patch92

{
type calculated;
value uniform 0;
}
patch93

{
type calculated;
value uniform 0;
}
patch94

{
type calculated;
value uniform 0;
}
patch95

{
type calculated;
value uniform 0;
}
patch96

{
type calculated;
value uniform 0;
}
patch97

{
type calculated;
value uniform 0;
}
patch98

{
type calculated;
value uniform 0;
}
patch99

{
type calculated;
value uniform 0;
}
patch100

{
type calculated;
value uniform 0;
}
patch101

{
type calculated;
value uniform 0;
}
patch102

{
type calculated;
value uniform 0;
}
patch103

{
type calculated;
value uniform 0;
}
patch104

{
type calculated;
value uniform 0;
}
patch105

{
type calculated;
value uniform 0;
}
patch106

{
type calculated;
value uniform 0;
}
patch107

{
type calculated;
value uniform 0;
}
patch108

{
type calculated;
value uniform 0;
}
patch109

{
type calculated;
value uniform 0;
}
patch110

{
type calculated;
value uniform 0;
}
patch111

{
type calculated;
value uniform 0;
}
patch112

{
type calculated;
value uniform 0;
}
patch113

{
type calculated;
value uniform 0;
}
patch114

{
type calculated;
value uniform 0;
}
patch115

{
type calculated;
value uniform 0;
}
patch116

{
type calculated;
value uniform 0;
}
patch117

{
type calculated;
value uniform 0;
}
patch118

{
type calculated;
value uniform 0;
}
patch119

{
type calculated;
value uniform 0;
}
patch120

{
type calculated;
value uniform 0;
}
patch121

{
type calculated;
value uniform 0;
}
patch122

{
type calculated;
value uniform 0;
}
patch123

{
type calculated;
value uniform 0;
}
patch124

{
type calculated;
value uniform 0;
}
patch125

{
type calculated;
value uniform 0;
}
patch126

{
type calculated;
value uniform 0;
}
patch127

{
type calculated;
value uniform 0;
}
patch128

{
type calculated;
value uniform 0;
}
patch129

{
type calculated;
value uniform 0;
}
patch130

{
type calculated;
value uniform 0;
}
patch131

{
type calculated;
value uniform 0;
}
patch132

{
type calculated;
value uniform 0;
}
patch133

{
type calculated;
value uniform 0;
}
patch134

{
type calculated;
value uniform 0;
}
patch135

{
type calculated;
value uniform 0;
}
patch136

{
type calculated;
value uniform 0;
}
patch137

{
type calculated;
value uniform 0;
}
patch138

{
type calculated;
value uniform 0;
}
patch139

{
type calculated;
value uniform 0;
}
patch140

{
type calculated;
value uniform 0;
}
patch141

{
type calculated;
value uniform 0;
}
patch142

{
type calculated;
value uniform 0;
}
patch143

{
type calculated;
value uniform 0;
}
patch144

{
type calculated;
value uniform 0;
}
patch145

{
type calculated;
value uniform 0;
}
patch146

{
type calculated;
value uniform 0;
}
patch147

{
type calculated;
value uniform 0;
}
patch148

{
type calculated;
value uniform 0;
}
patch149

{
type calculated;
value uniform 0;
}
patch150

{
type calculated;
value uniform 0;
}
patch151

{
type calculated;
value uniform 0;
}
patch152

{
type calculated;
value uniform 0;
}
patch153

{
type calculated;
value uniform 0;
}
patch154

{
type calculated;
value uniform 0;
}
patch155

{
type calculated;
value uniform 0;
}
patch156

{
type calculated;
value uniform 0;
}
patch157

{
type calculated;
value uniform 0;
}
patch158

{
type calculated;
value uniform 0;
}
patch159

{
type calculated;
value uniform 0;
}
patch160

{
type calculated;
value uniform 0;
}
patch161

{
type calculated;
value uniform 0;
}
patch162

{
type calculated;
value uniform 0;
}
patch163

{
type calculated;
value uniform 0;
}
patch164

{
type calculated;
value uniform 0;
}
patch165

{
type calculated;
value uniform 0;
}
patch166

{
type calculated;
value uniform 0;
}
patch167

{
type calculated;
value uniform 0;
}
patch168

{
type calculated;
value uniform 0;
}
patch169

{
type calculated;
value uniform 0;
}
patch170

{
type calculated;
value uniform 0;
}
patch171

{
type calculated;
value uniform 0;
}
patch172

{
type calculated;
value uniform 0;
}
patch173

{
type calculated;
value uniform 0;
}
patch174

{
type calculated;
value uniform 0;
}
patch175

{
type calculated;
value uniform 0;
}
patch176

{
type calculated;
value uniform 0;
}
patch177

{
type calculated;
value uniform 0;
}
patch178

{
type calculated;
value uniform 0;
}
patch179

{
type calculated;
value uniform 0;
}
patch180

{
type calculated;
value uniform 0;
}
patch181

{
type calculated;
value uniform 0;
}
patch182

{
type calculated;
value uniform 0;
}
patch183

{
type calculated;
value uniform 0;
}
patch184

{
type calculated;
value uniform 0;
}
patch185

{
type calculated;
value uniform 0;
}
patch186

{
type calculated;
value uniform 0;
}
patch187

{
type calculated;
value uniform 0;
}
patch188

{
type calculated;
value uniform 0;
}
patch189

{
type calculated;
value uniform 0;
}
patch190

{
type calculated;
value uniform 0;
}
patch191

{
type calculated;
value uniform 0;
}
patch192

{
type calculated;
value uniform 0;
}
patch193

{
type calculated;
value uniform 0;
}
patch194

{
type calculated;
value uniform 0;
}
patch195

{
type calculated;
value uniform 0;
}
patch196

{
type calculated;
value uniform 0;
}
patch197

{
type calculated;
value uniform 0;
}
patch198

{
type calculated;
value uniform 0;
}
patch199

{
type calculated;
value uniform 0;
}
patch200

{
type calculated;
value uniform 0;
}
patch201

{
type calculated;
value uniform 0;
}
patch202

{
type calculated;
value uniform 0;
}
patch203

{
type calculated;
value uniform 0;
}
patch204

{
type calculated;
value uniform 0;
}
patch205

{
type calculated;
value uniform 0;
}
patch206

{
type calculated;
value uniform 0;
}
patch207

{
type calculated;
value uniform 0;
}
patch208

{
type calculated;
value uniform 0;
}
patch209

{
type calculated;
value uniform 0;
}
patch210

{
type calculated;
value uniform 0;
}
patch211

{
type calculated;
value uniform 0;
}
patch212

{
type calculated;
value uniform 0;
}
patch213

{
type calculated;
value uniform 0;
}
patch214

{
type calculated;
value uniform 0;
}
patch215

{
type calculated;
value uniform 0;
}
patch216

{
type calculated;
value uniform 0;
}
patch217

{
type calculated;
value uniform 0;
}
patch218

{
type calculated;
value uniform 0;
}
patch219

{
type calculated;
value uniform 0;
}
patch220

{
type calculated;
value uniform 0;
}
patch221

{
type calculated;
value uniform 0;
}
patch222

{
type calculated;
value uniform 0;
}
patch223

{
type calculated;
value uniform 0;
}
patch224

{
type calculated;
value uniform 0;
}
patch225

{
type calculated;
value uniform 0;
}
patch226

{
type calculated;
value uniform 0;
}
patch227

{
type calculated;
value uniform 0;
}
patch228

{
type calculated;
value uniform 0;
}
patch229

{
type calculated;
value uniform 0;
}
patch230

{
type calculated;
value uniform 0;
}
patch231

{
type calculated;
value uniform 0;
}
patch232

{
type calculated;
value uniform 0;
}
patch233

{
type calculated;
value uniform 0;
}
patch234

{
type calculated;
value uniform 0;
}
patch235

{
type calculated;
value uniform 0;
}
patch236

{
type calculated;
value uniform 0;
}
patch237

{
type calculated;
value uniform 0;
}
patch238

{
type calculated;
value uniform 0;
}
patch239

{
type calculated;
value uniform 0;
}
patch240

{
type calculated;
value uniform 0;
}
patch241

{
type calculated;
value uniform 0;
}
patch242

{
type calculated;
value uniform 0;
}
patch243

{
type calculated;
value uniform 0;
}
patch244

{
type calculated;
value uniform 0;
}
patch245

{
type calculated;
value uniform 0;
}
patch246

{
type calculated;
value uniform 0;
}
patch247

{
type calculated;
value uniform 0;
}
patch248

{
type calculated;
value uniform 0;
}
patch249

{
type calculated;
value uniform 0;
}
patch250

{
type calculated;
value uniform 0;
}
patch251

{
type calculated;
value uniform 0;
}
patch252

{
type calculated;
value uniform 0;
}
patch253

{
type calculated;
value uniform 0;
}
patch254

{
type calculated;
value uniform 0;
}
patch255

{
type calculated;
value uniform 0;
}
ground
    {
        type nutkAtmRoughWallFunction;
#include	"ABLConditions";
     value		uniform 0;
    }
ground_perim
    {
        type nutkAtmRoughWallFunction;
#include	"ABLConditions";
     value		uniform 0;
    }
    building
    {
        type nutUSpaldingWallFunction;
value uniform 0;
    }
}

// ************************************************************************* //

