/*--------------------------------*- C++ -*----------------------------------*\
| =========                 |                                                 |
| \\      /  F ield         | OpenFOAM: The Open Source CFD Toolbox           |
|  \\    /   O peration     | Version:  2.3.0                                 |
|   \\  /    A nd           | Web:      www.OpenFOAM.com                      |
|    \\/     M anipulation  |                                                 |
\*---------------------------------------------------------------------------*/
FoamFile
{
        version 2.0;
        format ascii;
        class dictionary;
        location system;
        object blockMeshDict;
}
convertToMeters 1;

vertices
(
(337.842 -137.375 0)
(491.168 732.178 0)
(-198.804 853.839 0)
(-352.13 -15.715 0)
(337.842 -137.375 310)
(491.168 732.178 310)
(-198.804 853.839 310)
(-352.13 -15.715 310)
);
blocks
(
        hex (0 1 2 3 4 5 6 7) (88 70 31) simpleGrading (1 1 1)
);
edges
(
);
boundary
(
        inlet
{
        type patch;
        faces
        (
                (0 1 4 5)
        );
}
        outlet
{
        type patch;
        faces
        (
                (2 3 6 7)
        );
}
        ground
{
        type wall;
        faces
        (
                (0 1 2 3)
        );
}
        frontAndBack
{
        type patch;
        faces
        (
                        (1 2 5 6)
                        (0 3 4 7)
                        (4 5 6 7)
        );
}
);
        